ProjectFiles/HECO/DSSfiles/Backup/lines_res_star.dss
New Line.OH_264880_1_1 bus1=DEV_264881_TSF.1 bus2=DEV_264881_1338.1 Phases=1 linecode=4/0_1PH length=60 units=ft !kW=1.23507359091 pf=0.98 yearly=m3loadmult
New Line.OH_264880_1_2 bus1=DEV_264881_TSF.1 bus2=DEV_264881_1333.1 Phases=1 linecode=4/0_1PH length=60 units=ft !kW=1.23507359091 pf=0.98 yearly=m3loadmult
New Line.OH_264880_1_3 bus1=DEV_264881_TSF.1 bus2=DEV_264881_1327.1 Phases=1 linecode=4/0_1PH length=60 units=ft !kW=1.23507359091 pf=0.98 yearly=m3loadmult
New Line.OH_264880_1_4 bus1=DEV_264881_TSF.1 bus2=DEV_264881_1332.1 Phases=1 linecode=4/0_1PH length=60 units=ft !kW=1.23507359091 pf=0.98 yearly=m3loadmult
New Line.OH_264880_1_5 bus1=DEV_264881_TSF.1 bus2=DEV_264881_1326.1 Phases=1 linecode=4/0_1PH length=60 units=ft !kW=1.23507359091 pf=0.98 yearly=m3loadmult
New Line.OH_264880_1_6 bus1=DEV_264881_TSF.1 bus2=DEV_264881_1320.1 Phases=1 linecode=4/0_1PH length=60 units=ft !kW=1.23507359091 pf=0.98 yearly=m3loadmult
New Line.OH_264880_1_7 bus1=DEV_264881_TSF.1 bus2=DEV_264881_1321.1 Phases=1 linecode=4/0_1PH length=60 units=ft !kW=1.23507359091 pf=0.98 yearly=m3loadmult
New Line.OH_264880_1_8 bus1=DEV_264881_TSF.1 bus2=DEV_264881_1315.1 Phases=1 linecode=4/0_1PH length=60 units=ft !kW=1.23507359091 pf=0.98 yearly=m3loadmult
New Line.OH_264880_1_9 bus1=DEV_264881_TSF.1 bus2=DEV_264881_1312.1 Phases=1 linecode=4/0_1PH length=60 units=ft !kW=1.23507359091 pf=0.98 yearly=m3loadmult
New Line.OH_264880_1_10 bus1=DEV_264881_TSF.1 bus2=DEV_264881_0_P17.1 Phases=1 linecode=4/0_1PH length=60 units=ft !kW=1.23507359091 pf=0.98 yearly=m3loadmult
New Line.OH_264880_1_11 bus1=DEV_264881_TSF.1 bus2=DEV_264881_1_P17.1 Phases=1 linecode=4/0_1PH length=60 units=ft !kW=1.23507359091 pf=0.98 yearly=m3loadmult
New Line.OH_264880_1_12 bus1=DEV_264881_TSF.1 bus2=DEV_264881_2_P17.1 Phases=1 linecode=4/0_1PH length=60 units=ft !kW=1.23507359091 pf=0.98 yearly=m3loadmult
New Line.OH_264880_1_13 bus1=DEV_264881_TSF.1 bus2=DEV_264881_3_P17.1 Phases=1 linecode=4/0_1PH length=60 units=ft !kW=1.23507359091 pf=0.98 yearly=m3loadmult
New Line.OH_264880_1_14 bus1=DEV_264881_TSF.1 bus2=DEV_264881_4_P17.1 Phases=1 linecode=4/0_1PH length=60 units=ft !kW=1.23507359091 pf=0.98 yearly=m3loadmult
New Line.OH_264880_1_15 bus1=DEV_264881_TSF.1 bus2=DEV_264881_5_P17.1 Phases=1 linecode=4/0_1PH length=60 units=ft !kW=1.23507359091 pf=0.98 yearly=m3loadmult
New Line.OH_264880_1_16 bus1=DEV_264881_TSF.1 bus2=DEV_264881_6_P17.1 Phases=1 linecode=4/0_1PH length=60 units=ft !kW=1.23507359091 pf=0.98 yearly=m3loadmult
New Line.OH_264880_1_17 bus1=DEV_264881_TSF.1 bus2=DEV_264881_7_P17.1 Phases=1 linecode=4/0_1PH length=60 units=ft !kW=1.23507359091 pf=0.98 yearly=m3loadmult
New Line.OH_264880_1_18 bus1=DEV_264881_TSF.1 bus2=DEV_264881_8_P17.1 Phases=1 linecode=4/0_1PH length=60 units=ft !kW=1.23507359091 pf=0.98 yearly=m3loadmult
New Line.OH_264880_1_19 bus1=DEV_264881_TSF.1 bus2=DEV_264881_9_P17.1 Phases=1 linecode=4/0_1PH length=60 units=ft !kW=1.23507359091 pf=0.98 yearly=m3loadmult
New Line.OH_264880_1_20 bus1=DEV_264881_TSF.1 bus2=DEV_264881_10_P17.1 Phases=1 linecode=4/0_1PH length=60 units=ft !kW=1.23507359091 pf=0.98 yearly=m3loadmult
New Line.OH_264880_1_21 bus1=DEV_264881_TSF.1 bus2=DEV_264881_11_P17.1 Phases=1 linecode=4/0_1PH length=60 units=ft !kW=1.23507359091 pf=0.98 yearly=m3loadmult
New Line.OH_264880_1_22 bus1=DEV_264881_TSF.1 bus2=DEV_264881_12_P17.1 Phases=1 linecode=4/0_1PH length=60 units=ft !kW=1.23507359091 pf=0.98 yearly=m3loadmult
New Line.OH_264883_1_1 bus1=DEV_264884_TSF.2 bus2=DEV_264884_433.2 Phases=1 linecode=4/0_1PH length=60 units=ft !kW=1.43008523077 pf=0.98 yearly=m3loadmult
New Line.OH_264883_1_2 bus1=DEV_264884_TSF.2 bus2=DEV_264884_425.2 Phases=1 linecode=4/0_1PH length=60 units=ft !kW=1.43008523077 pf=0.98 yearly=m3loadmult
New Line.OH_264883_1_3 bus1=DEV_264884_TSF.2 bus2=DEV_264884_424.2 Phases=1 linecode=4/0_1PH length=60 units=ft !kW=1.43008523077 pf=0.98 yearly=m3loadmult
New Line.OH_264883_1_4 bus1=DEV_264884_TSF.2 bus2=DEV_264884_419.2 Phases=1 linecode=4/0_1PH length=60 units=ft !kW=1.43008523077 pf=0.98 yearly=m3loadmult
New Line.OH_264883_1_5 bus1=DEV_264884_TSF.2 bus2=DEV_264884_411.2 Phases=1 linecode=4/0_1PH length=60 units=ft !kW=1.43008523077 pf=0.98 yearly=m3loadmult
New Line.OH_264883_1_6 bus1=DEV_264884_TSF.2 bus2=DEV_264884_418.2 Phases=1 linecode=4/0_1PH length=60 units=ft !kW=1.43008523077 pf=0.98 yearly=m3loadmult
New Line.OH_264883_1_7 bus1=DEV_264884_TSF.2 bus2=DEV_264884_352.2 Phases=1 linecode=4/0_1PH length=60 units=ft !kW=1.43008523077 pf=0.98 yearly=m3loadmult
New Line.OH_264883_1_8 bus1=DEV_264884_TSF.2 bus2=DEV_264884_406.2 Phases=1 linecode=4/0_1PH length=60 units=ft !kW=1.43008523077 pf=0.98 yearly=m3loadmult
New Line.OH_264883_1_9 bus1=DEV_264884_TSF.2 bus2=DEV_264884_439.2 Phases=1 linecode=4/0_1PH length=60 units=ft !kW=1.43008523077 pf=0.98 yearly=m3loadmult
New Line.OH_264883_1_10 bus1=DEV_264884_TSF.2 bus2=DEV_264884_440.2 Phases=1 linecode=4/0_1PH length=60 units=ft !kW=1.43008523077 pf=0.98 yearly=m3loadmult
New Line.OH_264883_1_11 bus1=DEV_264884_TSF.2 bus2=DEV_264884_460.2 Phases=1 linecode=4/0_1PH length=60 units=ft !kW=1.43008523077 pf=0.98 yearly=m3loadmult
New Line.OH_264883_1_12 bus1=DEV_264884_TSF.2 bus2=DEV_264884_441.2 Phases=1 linecode=4/0_1PH length=60 units=ft !kW=1.43008523077 pf=0.98 yearly=m3loadmult
New Line.OH_264883_1_13 bus1=DEV_264884_TSF.2 bus2=DEV_264884_462.2 Phases=1 linecode=4/0_1PH length=60 units=ft !kW=1.43008523077 pf=0.98 yearly=m3loadmult
New Line.OH_264887_1_1 bus1=DEV_264888_TSF.2 bus2=DEV_264888_775.2 Phases=1 linecode=4/0_1PH length=60 units=ft !kW=1.8591108 pf=0.98 yearly=m3loadmult
New Line.OH_264887_1_2 bus1=DEV_264888_TSF.2 bus2=DEV_264888_780.2 Phases=1 linecode=4/0_1PH length=60 units=ft !kW=1.8591108 pf=0.98 yearly=m3loadmult
New Line.OH_264887_1_3 bus1=DEV_264888_TSF.2 bus2=DEV_264888_783.2 Phases=1 linecode=4/0_1PH length=60 units=ft !kW=1.8591108 pf=0.98 yearly=m3loadmult
New Line.OH_264887_1_4 bus1=DEV_264888_TSF.2 bus2=DEV_264888_788.2 Phases=1 linecode=4/0_1PH length=60 units=ft !kW=1.8591108 pf=0.98 yearly=m3loadmult
New Line.OH_264887_1_5 bus1=DEV_264888_TSF.2 bus2=DEV_264888_790.2 Phases=1 linecode=4/0_1PH length=60 units=ft !kW=1.8591108 pf=0.98 yearly=m3loadmult
New Line.OH_264887_1_6 bus1=DEV_264888_TSF.2 bus2=DEV_264888_793.2 Phases=1 linecode=4/0_1PH length=60 units=ft !kW=1.8591108 pf=0.98 yearly=m3loadmult
New Line.OH_264887_1_7 bus1=DEV_264888_TSF.2 bus2=DEV_264888_796.2 Phases=1 linecode=4/0_1PH length=60 units=ft !kW=1.8591108 pf=0.98 yearly=m3loadmult
New Line.OH_264887_1_8 bus1=DEV_264888_TSF.2 bus2=DEV_264888_797.2 Phases=1 linecode=4/0_1PH length=60 units=ft !kW=1.8591108 pf=0.98 yearly=m3loadmult
New Line.OH_264887_1_9 bus1=DEV_264888_TSF.2 bus2=DEV_264888_770.2 Phases=1 linecode=4/0_1PH length=60 units=ft !kW=1.8591108 pf=0.98 yearly=m3loadmult
New Line.OH_264887_1_10 bus1=DEV_264888_TSF.2 bus2=DEV_264888_769.2 Phases=1 linecode=4/0_1PH length=60 units=ft !kW=1.8591108 pf=0.98 yearly=m3loadmult
New Line.OH_264889_1_1 bus1=DEV_264891_TSF.1 bus2=DEV_264891_433.1 Phases=1 linecode=4/0_1PH length=60 units=ft !kW=2.11457046154 pf=0.98 yearly=m3loadmult
New Line.OH_264889_1_2 bus1=DEV_264891_TSF.1 bus2=DEV_264891_425.1 Phases=1 linecode=4/0_1PH length=60 units=ft !kW=2.11457046154 pf=0.98 yearly=m3loadmult
New Line.OH_264889_1_3 bus1=DEV_264891_TSF.1 bus2=DEV_264891_424.1 Phases=1 linecode=4/0_1PH length=60 units=ft !kW=2.11457046154 pf=0.98 yearly=m3loadmult
New Line.OH_264889_1_4 bus1=DEV_264891_TSF.1 bus2=DEV_264891_419.1 Phases=1 linecode=4/0_1PH length=60 units=ft !kW=2.11457046154 pf=0.98 yearly=m3loadmult
New Line.OH_264889_1_5 bus1=DEV_264891_TSF.1 bus2=DEV_264891_411.1 Phases=1 linecode=4/0_1PH length=60 units=ft !kW=2.11457046154 pf=0.98 yearly=m3loadmult
New Line.OH_264889_1_6 bus1=DEV_264891_TSF.1 bus2=DEV_264891_418.1 Phases=1 linecode=4/0_1PH length=60 units=ft !kW=2.11457046154 pf=0.98 yearly=m3loadmult
New Line.OH_264889_1_7 bus1=DEV_264891_TSF.1 bus2=DEV_264891_352.1 Phases=1 linecode=4/0_1PH length=60 units=ft !kW=2.11457046154 pf=0.98 yearly=m3loadmult
New Line.OH_264889_1_8 bus1=DEV_264891_TSF.1 bus2=DEV_264891_406.1 Phases=1 linecode=4/0_1PH length=60 units=ft !kW=2.11457046154 pf=0.98 yearly=m3loadmult
New Line.OH_264889_1_9 bus1=DEV_264891_TSF.1 bus2=DEV_264891_439.1 Phases=1 linecode=4/0_1PH length=60 units=ft !kW=2.11457046154 pf=0.98 yearly=m3loadmult
New Line.OH_264889_1_10 bus1=DEV_264891_TSF.1 bus2=DEV_264891_440.1 Phases=1 linecode=4/0_1PH length=60 units=ft !kW=2.11457046154 pf=0.98 yearly=m3loadmult
New Line.OH_264889_1_11 bus1=DEV_264891_TSF.1 bus2=DEV_264891_460.1 Phases=1 linecode=4/0_1PH length=60 units=ft !kW=2.11457046154 pf=0.98 yearly=m3loadmult
New Line.OH_264889_1_12 bus1=DEV_264891_TSF.1 bus2=DEV_264891_441.1 Phases=1 linecode=4/0_1PH length=60 units=ft !kW=2.11457046154 pf=0.98 yearly=m3loadmult
New Line.OH_264889_1_13 bus1=DEV_264891_TSF.1 bus2=DEV_264891_462.1 Phases=1 linecode=4/0_1PH length=60 units=ft !kW=2.11457046154 pf=0.98 yearly=m3loadmult
New Line.OH_264893_1_1 bus1=DEV_264894_TSF.1 bus2=DEV_264894_775.1 Phases=1 linecode=4/0_1PH length=60 units=ft !kW=1.5783904 pf=0.98 yearly=m3loadmult
New Line.OH_264893_1_2 bus1=DEV_264894_TSF.1 bus2=DEV_264894_780.1 Phases=1 linecode=4/0_1PH length=60 units=ft !kW=1.5783904 pf=0.98 yearly=m3loadmult
New Line.OH_264893_1_3 bus1=DEV_264894_TSF.1 bus2=DEV_264894_783.1 Phases=1 linecode=4/0_1PH length=60 units=ft !kW=1.5783904 pf=0.98 yearly=m3loadmult
New Line.OH_264893_1_4 bus1=DEV_264894_TSF.1 bus2=DEV_264894_788.1 Phases=1 linecode=4/0_1PH length=60 units=ft !kW=1.5783904 pf=0.98 yearly=m3loadmult
New Line.OH_264893_1_5 bus1=DEV_264894_TSF.1 bus2=DEV_264894_790.1 Phases=1 linecode=4/0_1PH length=60 units=ft !kW=1.5783904 pf=0.98 yearly=m3loadmult
New Line.OH_264893_1_6 bus1=DEV_264894_TSF.1 bus2=DEV_264894_793.1 Phases=1 linecode=4/0_1PH length=60 units=ft !kW=1.5783904 pf=0.98 yearly=m3loadmult
New Line.OH_264893_1_7 bus1=DEV_264894_TSF.1 bus2=DEV_264894_796.1 Phases=1 linecode=4/0_1PH length=60 units=ft !kW=1.5783904 pf=0.98 yearly=m3loadmult
New Line.OH_264893_1_8 bus1=DEV_264894_TSF.1 bus2=DEV_264894_797.1 Phases=1 linecode=4/0_1PH length=60 units=ft !kW=1.5783904 pf=0.98 yearly=m3loadmult
New Line.OH_264893_1_9 bus1=DEV_264894_TSF.1 bus2=DEV_264894_770.1 Phases=1 linecode=4/0_1PH length=60 units=ft !kW=1.5783904 pf=0.98 yearly=m3loadmult
New Line.OH_264893_1_10 bus1=DEV_264894_TSF.1 bus2=DEV_264894_769.1 Phases=1 linecode=4/0_1PH length=60 units=ft !kW=1.5783904 pf=0.98 yearly=m3loadmult
New Line.OH_264898_1_1 bus1=DEV_264901_TSF.2 bus2=DEV_264901_5833.2 Phases=1 linecode=4/0_1PH length=60 units=ft !kW=2.05243725 pf=0.98 yearly=m3loadmult
New Line.OH_264898_1_2 bus1=DEV_264901_TSF.2 bus2=DEV_264901_367.2 Phases=1 linecode=4/0_1PH length=60 units=ft !kW=2.05243725 pf=0.98 yearly=m3loadmult
New Line.OH_264898_1_3 bus1=DEV_264901_TSF.2 bus2=DEV_264901_5815.2 Phases=1 linecode=4/0_1PH length=60 units=ft !kW=2.05243725 pf=0.98 yearly=m3loadmult
New Line.OH_264898_1_4 bus1=DEV_264901_TSF.2 bus2=DEV_264901_5808.2 Phases=1 linecode=4/0_1PH length=60 units=ft !kW=2.05243725 pf=0.98 yearly=m3loadmult
New Line.OH_264903_1_1 bus1=DEV_264904_TSF.2 bus2=DEV_264904_433.2 Phases=1 linecode=4/0_1PH length=60 units=ft !kW=1.11228853846 pf=0.98 yearly=m3loadmult
New Line.OH_264903_1_2 bus1=DEV_264904_TSF.2 bus2=DEV_264904_425.2 Phases=1 linecode=4/0_1PH length=60 units=ft !kW=1.11228853846 pf=0.98 yearly=m3loadmult
New Line.OH_264903_1_3 bus1=DEV_264904_TSF.2 bus2=DEV_264904_424.2 Phases=1 linecode=4/0_1PH length=60 units=ft !kW=1.11228853846 pf=0.98 yearly=m3loadmult
New Line.OH_264903_1_4 bus1=DEV_264904_TSF.2 bus2=DEV_264904_419.2 Phases=1 linecode=4/0_1PH length=60 units=ft !kW=1.11228853846 pf=0.98 yearly=m3loadmult
New Line.OH_264903_1_5 bus1=DEV_264904_TSF.2 bus2=DEV_264904_411.2 Phases=1 linecode=4/0_1PH length=60 units=ft !kW=1.11228853846 pf=0.98 yearly=m3loadmult
New Line.OH_264903_1_6 bus1=DEV_264904_TSF.2 bus2=DEV_264904_418.2 Phases=1 linecode=4/0_1PH length=60 units=ft !kW=1.11228853846 pf=0.98 yearly=m3loadmult
New Line.OH_264903_1_7 bus1=DEV_264904_TSF.2 bus2=DEV_264904_352.2 Phases=1 linecode=4/0_1PH length=60 units=ft !kW=1.11228853846 pf=0.98 yearly=m3loadmult
New Line.OH_264903_1_8 bus1=DEV_264904_TSF.2 bus2=DEV_264904_406.2 Phases=1 linecode=4/0_1PH length=60 units=ft !kW=1.11228853846 pf=0.98 yearly=m3loadmult
New Line.OH_264903_1_9 bus1=DEV_264904_TSF.2 bus2=DEV_264904_439.2 Phases=1 linecode=4/0_1PH length=60 units=ft !kW=1.11228853846 pf=0.98 yearly=m3loadmult
New Line.OH_264903_1_10 bus1=DEV_264904_TSF.2 bus2=DEV_264904_440.2 Phases=1 linecode=4/0_1PH length=60 units=ft !kW=1.11228853846 pf=0.98 yearly=m3loadmult
New Line.OH_264903_1_11 bus1=DEV_264904_TSF.2 bus2=DEV_264904_460.2 Phases=1 linecode=4/0_1PH length=60 units=ft !kW=1.11228853846 pf=0.98 yearly=m3loadmult
New Line.OH_264903_1_12 bus1=DEV_264904_TSF.2 bus2=DEV_264904_441.2 Phases=1 linecode=4/0_1PH length=60 units=ft !kW=1.11228853846 pf=0.98 yearly=m3loadmult
New Line.OH_264903_1_13 bus1=DEV_264904_TSF.2 bus2=DEV_264904_462.2 Phases=1 linecode=4/0_1PH length=60 units=ft !kW=1.11228853846 pf=0.98 yearly=m3loadmult
New Line.OH_264913_1_1 bus1=DEV_264915_TSF.1 bus2=DEV_264915_1338.1 Phases=1 linecode=4/0_1PH length=60 units=ft !kW=1.2764835 pf=0.98 yearly=m3loadmult
New Line.OH_264913_1_2 bus1=DEV_264915_TSF.1 bus2=DEV_264915_1333.1 Phases=1 linecode=4/0_1PH length=60 units=ft !kW=1.2764835 pf=0.98 yearly=m3loadmult
New Line.OH_264913_1_3 bus1=DEV_264915_TSF.1 bus2=DEV_264915_1327.1 Phases=1 linecode=4/0_1PH length=60 units=ft !kW=1.2764835 pf=0.98 yearly=m3loadmult
New Line.OH_264913_1_4 bus1=DEV_264915_TSF.1 bus2=DEV_264915_1332.1 Phases=1 linecode=4/0_1PH length=60 units=ft !kW=1.2764835 pf=0.98 yearly=m3loadmult
New Line.OH_264913_1_5 bus1=DEV_264915_TSF.1 bus2=DEV_264915_1326.1 Phases=1 linecode=4/0_1PH length=60 units=ft !kW=1.2764835 pf=0.98 yearly=m3loadmult
New Line.OH_264913_1_6 bus1=DEV_264915_TSF.1 bus2=DEV_264915_1320.1 Phases=1 linecode=4/0_1PH length=60 units=ft !kW=1.2764835 pf=0.98 yearly=m3loadmult
New Line.OH_264913_1_7 bus1=DEV_264915_TSF.1 bus2=DEV_264915_1321.1 Phases=1 linecode=4/0_1PH length=60 units=ft !kW=1.2764835 pf=0.98 yearly=m3loadmult
New Line.OH_264913_1_8 bus1=DEV_264915_TSF.1 bus2=DEV_264915_1315.1 Phases=1 linecode=4/0_1PH length=60 units=ft !kW=1.2764835 pf=0.98 yearly=m3loadmult
New Line.OH_264913_1_9 bus1=DEV_264915_TSF.1 bus2=DEV_264915_1312.1 Phases=1 linecode=4/0_1PH length=60 units=ft !kW=1.2764835 pf=0.98 yearly=m3loadmult
New Line.OH_264913_1_10 bus1=DEV_264915_TSF.1 bus2=DEV_264915_0_P17.1 Phases=1 linecode=4/0_1PH length=60 units=ft !kW=1.2764835 pf=0.98 yearly=m3loadmult
New Line.OH_264913_1_11 bus1=DEV_264915_TSF.1 bus2=DEV_264915_1_P17.1 Phases=1 linecode=4/0_1PH length=60 units=ft !kW=1.2764835 pf=0.98 yearly=m3loadmult
New Line.OH_264913_1_12 bus1=DEV_264915_TSF.1 bus2=DEV_264915_2_P17.1 Phases=1 linecode=4/0_1PH length=60 units=ft !kW=1.2764835 pf=0.98 yearly=m3loadmult
New Line.OH_264913_1_13 bus1=DEV_264915_TSF.1 bus2=DEV_264915_3_P17.1 Phases=1 linecode=4/0_1PH length=60 units=ft !kW=1.2764835 pf=0.98 yearly=m3loadmult
New Line.OH_264913_1_14 bus1=DEV_264915_TSF.1 bus2=DEV_264915_4_P17.1 Phases=1 linecode=4/0_1PH length=60 units=ft !kW=1.2764835 pf=0.98 yearly=m3loadmult
New Line.OH_264913_1_15 bus1=DEV_264915_TSF.1 bus2=DEV_264915_5_P17.1 Phases=1 linecode=4/0_1PH length=60 units=ft !kW=1.2764835 pf=0.98 yearly=m3loadmult
New Line.OH_264913_1_16 bus1=DEV_264915_TSF.1 bus2=DEV_264915_6_P17.1 Phases=1 linecode=4/0_1PH length=60 units=ft !kW=1.2764835 pf=0.98 yearly=m3loadmult
New Line.OH_264913_1_17 bus1=DEV_264915_TSF.1 bus2=DEV_264915_7_P17.1 Phases=1 linecode=4/0_1PH length=60 units=ft !kW=1.2764835 pf=0.98 yearly=m3loadmult
New Line.OH_264913_1_18 bus1=DEV_264915_TSF.1 bus2=DEV_264915_8_P17.1 Phases=1 linecode=4/0_1PH length=60 units=ft !kW=1.2764835 pf=0.98 yearly=m3loadmult
New Line.OH_264913_1_19 bus1=DEV_264915_TSF.1 bus2=DEV_264915_9_P17.1 Phases=1 linecode=4/0_1PH length=60 units=ft !kW=1.2764835 pf=0.98 yearly=m3loadmult
New Line.OH_264913_1_20 bus1=DEV_264915_TSF.1 bus2=DEV_264915_10_P17.1 Phases=1 linecode=4/0_1PH length=60 units=ft !kW=1.2764835 pf=0.98 yearly=m3loadmult
New Line.OH_264919_1_1 bus1=DEV_264921_TSF.1 bus2=DEV_264921_644.1 Phases=1 linecode=4/0_1PH length=60 units=ft !kW=2.04297885714 pf=0.98 yearly=m3loadmult
New Line.OH_264919_1_2 bus1=DEV_264921_TSF.1 bus2=DEV_264921_648.1 Phases=1 linecode=4/0_1PH length=60 units=ft !kW=2.04297885714 pf=0.98 yearly=m3loadmult
New Line.OH_264919_1_3 bus1=DEV_264921_TSF.1 bus2=DEV_264921_645.1 Phases=1 linecode=4/0_1PH length=60 units=ft !kW=2.04297885714 pf=0.98 yearly=m3loadmult
New Line.OH_264919_1_4 bus1=DEV_264921_TSF.1 bus2=DEV_264921_649.1 Phases=1 linecode=4/0_1PH length=60 units=ft !kW=2.04297885714 pf=0.98 yearly=m3loadmult
New Line.OH_264919_1_5 bus1=DEV_264921_TSF.1 bus2=DEV_264921_640.1 Phases=1 linecode=4/0_1PH length=60 units=ft !kW=2.04297885714 pf=0.98 yearly=m3loadmult
New Line.OH_264919_1_6 bus1=DEV_264921_TSF.1 bus2=DEV_264921_639.1 Phases=1 linecode=4/0_1PH length=60 units=ft !kW=2.04297885714 pf=0.98 yearly=m3loadmult
New Line.OH_264919_1_7 bus1=DEV_264921_TSF.1 bus2=DEV_264921_636.1 Phases=1 linecode=4/0_1PH length=60 units=ft !kW=2.04297885714 pf=0.98 yearly=m3loadmult
New Line.OH_264922_1_1 bus1=DEV_264923_TSF.1 bus2=DEV_264923_433.1 Phases=1 linecode=4/0_1PH length=60 units=ft !kW=1.05932241667 pf=0.98 yearly=m3loadmult
New Line.OH_264922_1_2 bus1=DEV_264923_TSF.1 bus2=DEV_264923_425.1 Phases=1 linecode=4/0_1PH length=60 units=ft !kW=1.05932241667 pf=0.98 yearly=m3loadmult
New Line.OH_264922_1_3 bus1=DEV_264923_TSF.1 bus2=DEV_264923_424.1 Phases=1 linecode=4/0_1PH length=60 units=ft !kW=1.05932241667 pf=0.98 yearly=m3loadmult
New Line.OH_264922_1_4 bus1=DEV_264923_TSF.1 bus2=DEV_264923_419.1 Phases=1 linecode=4/0_1PH length=60 units=ft !kW=1.05932241667 pf=0.98 yearly=m3loadmult
New Line.OH_264922_1_5 bus1=DEV_264923_TSF.1 bus2=DEV_264923_411.1 Phases=1 linecode=4/0_1PH length=60 units=ft !kW=1.05932241667 pf=0.98 yearly=m3loadmult
New Line.OH_264922_1_6 bus1=DEV_264923_TSF.1 bus2=DEV_264923_418.1 Phases=1 linecode=4/0_1PH length=60 units=ft !kW=1.05932241667 pf=0.98 yearly=m3loadmult
New Line.OH_264922_1_7 bus1=DEV_264923_TSF.1 bus2=DEV_264923_352.1 Phases=1 linecode=4/0_1PH length=60 units=ft !kW=1.05932241667 pf=0.98 yearly=m3loadmult
New Line.OH_264922_1_8 bus1=DEV_264923_TSF.1 bus2=DEV_264923_406.1 Phases=1 linecode=4/0_1PH length=60 units=ft !kW=1.05932241667 pf=0.98 yearly=m3loadmult
New Line.OH_264922_1_9 bus1=DEV_264923_TSF.1 bus2=DEV_264923_439.1 Phases=1 linecode=4/0_1PH length=60 units=ft !kW=1.05932241667 pf=0.98 yearly=m3loadmult
New Line.OH_264922_1_10 bus1=DEV_264923_TSF.1 bus2=DEV_264923_440.1 Phases=1 linecode=4/0_1PH length=60 units=ft !kW=1.05932241667 pf=0.98 yearly=m3loadmult
New Line.OH_264922_1_11 bus1=DEV_264923_TSF.1 bus2=DEV_264923_460.1 Phases=1 linecode=4/0_1PH length=60 units=ft !kW=1.05932241667 pf=0.98 yearly=m3loadmult
New Line.OH_264922_1_12 bus1=DEV_264923_TSF.1 bus2=DEV_264923_441.1 Phases=1 linecode=4/0_1PH length=60 units=ft !kW=1.05932241667 pf=0.98 yearly=m3loadmult
New Line.OH_264925_1_1 bus1=DEV_264926_TSF.3 bus2=DEV_264926_1570.3 Phases=1 linecode=4/0_1PH length=60 units=ft !kW=1.02505017647 pf=0.98 yearly=m3loadmult
New Line.OH_264925_1_2 bus1=DEV_264926_TSF.3 bus2=DEV_264926_1571.3 Phases=1 linecode=4/0_1PH length=60 units=ft !kW=1.02505017647 pf=0.98 yearly=m3loadmult
New Line.OH_264925_1_3 bus1=DEV_264926_TSF.3 bus2=DEV_264926_1563.3 Phases=1 linecode=4/0_1PH length=60 units=ft !kW=1.02505017647 pf=0.98 yearly=m3loadmult
New Line.OH_264925_1_4 bus1=DEV_264926_TSF.3 bus2=DEV_264926_1564.3 Phases=1 linecode=4/0_1PH length=60 units=ft !kW=1.02505017647 pf=0.98 yearly=m3loadmult
New Line.OH_264925_1_5 bus1=DEV_264926_TSF.3 bus2=DEV_264926_1555.3 Phases=1 linecode=4/0_1PH length=60 units=ft !kW=1.02505017647 pf=0.98 yearly=m3loadmult
New Line.OH_264925_1_6 bus1=DEV_264926_TSF.3 bus2=DEV_264926_1556.3 Phases=1 linecode=4/0_1PH length=60 units=ft !kW=1.02505017647 pf=0.98 yearly=m3loadmult
New Line.OH_264925_1_7 bus1=DEV_264926_TSF.3 bus2=DEV_264926_1550.3 Phases=1 linecode=4/0_1PH length=60 units=ft !kW=1.02505017647 pf=0.98 yearly=m3loadmult
New Line.OH_264925_1_8 bus1=DEV_264926_TSF.3 bus2=DEV_264926_1549.3 Phases=1 linecode=4/0_1PH length=60 units=ft !kW=1.02505017647 pf=0.98 yearly=m3loadmult
New Line.OH_264925_1_9 bus1=DEV_264926_TSF.3 bus2=DEV_264926_1544.3 Phases=1 linecode=4/0_1PH length=60 units=ft !kW=1.02505017647 pf=0.98 yearly=m3loadmult
New Line.OH_264925_1_10 bus1=DEV_264926_TSF.3 bus2=DEV_264926_1525.3 Phases=1 linecode=4/0_1PH length=60 units=ft !kW=1.02505017647 pf=0.98 yearly=m3loadmult
New Line.OH_264925_1_11 bus1=DEV_264926_TSF.3 bus2=DEV_264926_1536.3 Phases=1 linecode=4/0_1PH length=60 units=ft !kW=1.02505017647 pf=0.98 yearly=m3loadmult
New Line.OH_264925_1_12 bus1=DEV_264926_TSF.3 bus2=DEV_264926_1579.3 Phases=1 linecode=4/0_1PH length=60 units=ft !kW=1.02505017647 pf=0.98 yearly=m3loadmult
New Line.OH_264925_1_13 bus1=DEV_264926_TSF.3 bus2=DEV_264926_1578.3 Phases=1 linecode=4/0_1PH length=60 units=ft !kW=1.02505017647 pf=0.98 yearly=m3loadmult
New Line.OH_264925_1_14 bus1=DEV_264926_TSF.3 bus2=DEV_264926_0_1578.3 Phases=1 linecode=4/0_1PH length=60 units=ft !kW=1.02505017647 pf=0.98 yearly=m3loadmult
New Line.OH_264925_1_15 bus1=DEV_264926_TSF.3 bus2=DEV_264926_1_1578.3 Phases=1 linecode=4/0_1PH length=60 units=ft !kW=1.02505017647 pf=0.98 yearly=m3loadmult
New Line.OH_264925_1_16 bus1=DEV_264926_TSF.3 bus2=DEV_264926_2_1578.3 Phases=1 linecode=4/0_1PH length=60 units=ft !kW=1.02505017647 pf=0.98 yearly=m3loadmult
New Line.OH_264925_1_17 bus1=DEV_264926_TSF.3 bus2=DEV_264926_3_1578.3 Phases=1 linecode=4/0_1PH length=60 units=ft !kW=1.02505017647 pf=0.98 yearly=m3loadmult
New Line.OH_264928_1_1 bus1=DEV_264929_TSF.1 bus2=DEV_264929_545.1 Phases=1 linecode=4/0_1PH length=60 units=ft !kW=1.33137563636 pf=0.98 yearly=m3loadmult
New Line.OH_264928_1_2 bus1=DEV_264929_TSF.1 bus2=DEV_264929_550.1 Phases=1 linecode=4/0_1PH length=60 units=ft !kW=1.33137563636 pf=0.98 yearly=m3loadmult
New Line.OH_264928_1_3 bus1=DEV_264929_TSF.1 bus2=DEV_264929_558.1 Phases=1 linecode=4/0_1PH length=60 units=ft !kW=1.33137563636 pf=0.98 yearly=m3loadmult
New Line.OH_264928_1_4 bus1=DEV_264929_TSF.1 bus2=DEV_264929_559.1 Phases=1 linecode=4/0_1PH length=60 units=ft !kW=1.33137563636 pf=0.98 yearly=m3loadmult
New Line.OH_264928_1_5 bus1=DEV_264929_TSF.1 bus2=DEV_264929_555.1 Phases=1 linecode=4/0_1PH length=60 units=ft !kW=1.33137563636 pf=0.98 yearly=m3loadmult
New Line.OH_264928_1_6 bus1=DEV_264929_TSF.1 bus2=DEV_264929_554.1 Phases=1 linecode=4/0_1PH length=60 units=ft !kW=1.33137563636 pf=0.98 yearly=m3loadmult
New Line.OH_264928_1_7 bus1=DEV_264929_TSF.1 bus2=DEV_264929_541.1 Phases=1 linecode=4/0_1PH length=60 units=ft !kW=1.33137563636 pf=0.98 yearly=m3loadmult
New Line.OH_264928_1_8 bus1=DEV_264929_TSF.1 bus2=DEV_264929_526.1 Phases=1 linecode=4/0_1PH length=60 units=ft !kW=1.33137563636 pf=0.98 yearly=m3loadmult
New Line.OH_264928_1_9 bus1=DEV_264929_TSF.1 bus2=DEV_264929_530.1 Phases=1 linecode=4/0_1PH length=60 units=ft !kW=1.33137563636 pf=0.98 yearly=m3loadmult
New Line.OH_264928_1_10 bus1=DEV_264929_TSF.1 bus2=DEV_264929_520.1 Phases=1 linecode=4/0_1PH length=60 units=ft !kW=1.33137563636 pf=0.98 yearly=m3loadmult
New Line.OH_264928_1_11 bus1=DEV_264929_TSF.1 bus2=DEV_264929_515.1 Phases=1 linecode=4/0_1PH length=60 units=ft !kW=1.33137563636 pf=0.98 yearly=m3loadmult
New Line.OH_264928_1_12 bus1=DEV_264929_TSF.1 bus2=DEV_264929_511.1 Phases=1 linecode=4/0_1PH length=60 units=ft !kW=1.33137563636 pf=0.98 yearly=m3loadmult
New Line.OH_264928_1_13 bus1=DEV_264929_TSF.1 bus2=DEV_264929_2144.1 Phases=1 linecode=4/0_1PH length=60 units=ft !kW=1.33137563636 pf=0.98 yearly=m3loadmult
New Line.OH_264928_1_14 bus1=DEV_264929_TSF.1 bus2=DEV_264929_512.1 Phases=1 linecode=4/0_1PH length=60 units=ft !kW=1.33137563636 pf=0.98 yearly=m3loadmult
New Line.OH_264928_1_15 bus1=DEV_264929_TSF.1 bus2=DEV_264929_560.1 Phases=1 linecode=4/0_1PH length=60 units=ft !kW=1.33137563636 pf=0.98 yearly=m3loadmult
New Line.OH_264928_1_16 bus1=DEV_264929_TSF.1 bus2=DEV_264929_0_560.1 Phases=1 linecode=4/0_1PH length=60 units=ft !kW=1.33137563636 pf=0.98 yearly=m3loadmult
New Line.OH_264928_1_17 bus1=DEV_264929_TSF.1 bus2=DEV_264929_1_560.1 Phases=1 linecode=4/0_1PH length=60 units=ft !kW=1.33137563636 pf=0.98 yearly=m3loadmult
New Line.OH_264928_1_18 bus1=DEV_264929_TSF.1 bus2=DEV_264929_2_560.1 Phases=1 linecode=4/0_1PH length=60 units=ft !kW=1.33137563636 pf=0.98 yearly=m3loadmult
New Line.OH_264928_1_19 bus1=DEV_264929_TSF.1 bus2=DEV_264929_3_560.1 Phases=1 linecode=4/0_1PH length=60 units=ft !kW=1.33137563636 pf=0.98 yearly=m3loadmult
New Line.OH_264928_1_20 bus1=DEV_264929_TSF.1 bus2=DEV_264929_4_560.1 Phases=1 linecode=4/0_1PH length=60 units=ft !kW=1.33137563636 pf=0.98 yearly=m3loadmult
New Line.OH_264928_1_21 bus1=DEV_264929_TSF.1 bus2=DEV_264929_5_560.1 Phases=1 linecode=4/0_1PH length=60 units=ft !kW=1.33137563636 pf=0.98 yearly=m3loadmult
New Line.OH_264928_1_22 bus1=DEV_264929_TSF.1 bus2=DEV_264929_6_560.1 Phases=1 linecode=4/0_1PH length=60 units=ft !kW=1.33137563636 pf=0.98 yearly=m3loadmult
New Line.OH_264931_1_1 bus1=DEV_264932_TSF.3 bus2=DEV_264932_1257.3 Phases=1 linecode=4/0_1PH length=60 units=ft !kW=1.29237333333 pf=0.98 yearly=m3loadmult
New Line.OH_264931_1_2 bus1=DEV_264932_TSF.3 bus2=DEV_264932_1262.3 Phases=1 linecode=4/0_1PH length=60 units=ft !kW=1.29237333333 pf=0.98 yearly=m3loadmult
New Line.OH_264931_1_3 bus1=DEV_264932_TSF.3 bus2=DEV_264932_1258.3 Phases=1 linecode=4/0_1PH length=60 units=ft !kW=1.29237333333 pf=0.98 yearly=m3loadmult
New Line.OH_264931_1_4 bus1=DEV_264932_TSF.3 bus2=DEV_264932_1252.3 Phases=1 linecode=4/0_1PH length=60 units=ft !kW=1.29237333333 pf=0.98 yearly=m3loadmult
New Line.OH_264931_1_5 bus1=DEV_264932_TSF.3 bus2=DEV_264932_1251.3 Phases=1 linecode=4/0_1PH length=60 units=ft !kW=1.29237333333 pf=0.98 yearly=m3loadmult
New Line.OH_264931_1_6 bus1=DEV_264932_TSF.3 bus2=DEV_264932_1246.3 Phases=1 linecode=4/0_1PH length=60 units=ft !kW=1.29237333333 pf=0.98 yearly=m3loadmult
New Line.OH_264931_1_7 bus1=DEV_264932_TSF.3 bus2=DEV_264932_1245.3 Phases=1 linecode=4/0_1PH length=60 units=ft !kW=1.29237333333 pf=0.98 yearly=m3loadmult
New Line.OH_264931_1_8 bus1=DEV_264932_TSF.3 bus2=DEV_264932_1266.3 Phases=1 linecode=4/0_1PH length=60 units=ft !kW=1.29237333333 pf=0.98 yearly=m3loadmult
New Line.OH_264931_1_9 bus1=DEV_264932_TSF.3 bus2=DEV_264932_1272.3 Phases=1 linecode=4/0_1PH length=60 units=ft !kW=1.29237333333 pf=0.98 yearly=m3loadmult
New Line.OH_264931_1_10 bus1=DEV_264932_TSF.3 bus2=DEV_264932_1239.3 Phases=1 linecode=4/0_1PH length=60 units=ft !kW=1.29237333333 pf=0.98 yearly=m3loadmult
New Line.OH_264931_1_11 bus1=DEV_264932_TSF.3 bus2=DEV_264932_0_1239.3 Phases=1 linecode=4/0_1PH length=60 units=ft !kW=1.29237333333 pf=0.98 yearly=m3loadmult
New Line.OH_264931_1_12 bus1=DEV_264932_TSF.3 bus2=DEV_264932_1_1239.3 Phases=1 linecode=4/0_1PH length=60 units=ft !kW=1.29237333333 pf=0.98 yearly=m3loadmult
New Line.OH_264931_1_13 bus1=DEV_264932_TSF.3 bus2=DEV_264932_2_1239.3 Phases=1 linecode=4/0_1PH length=60 units=ft !kW=1.29237333333 pf=0.98 yearly=m3loadmult
New Line.OH_264931_1_14 bus1=DEV_264932_TSF.3 bus2=DEV_264932_3_1239.3 Phases=1 linecode=4/0_1PH length=60 units=ft !kW=1.29237333333 pf=0.98 yearly=m3loadmult
New Line.OH_264931_1_15 bus1=DEV_264932_TSF.3 bus2=DEV_264932_4_1239.3 Phases=1 linecode=4/0_1PH length=60 units=ft !kW=1.29237333333 pf=0.98 yearly=m3loadmult
New Line.OH_264934_1_1 bus1=DEV_264935_TSF.3 bus2=DEV_264935_87-238.3 Phases=1 linecode=4/0_1PH length=60 units=ft !kW=1.5889836 pf=0.98 yearly=m3loadmult
New Line.OH_264934_1_2 bus1=DEV_264935_TSF.3 bus2=DEV_264935_87-244.3 Phases=1 linecode=4/0_1PH length=60 units=ft !kW=1.5889836 pf=0.98 yearly=m3loadmult
New Line.OH_264934_1_3 bus1=DEV_264935_TSF.3 bus2=DEV_264935_87-254.3 Phases=1 linecode=4/0_1PH length=60 units=ft !kW=1.5889836 pf=0.98 yearly=m3loadmult
New Line.OH_264934_1_4 bus1=DEV_264935_TSF.3 bus2=DEV_264935_87-114.3 Phases=1 linecode=4/0_1PH length=60 units=ft !kW=1.5889836 pf=0.98 yearly=m3loadmult
New Line.OH_264934_1_5 bus1=DEV_264935_TSF.3 bus2=DEV_264935_87-113.3 Phases=1 linecode=4/0_1PH length=60 units=ft !kW=1.5889836 pf=0.98 yearly=m3loadmult
New Line.OH_264945_1_1 bus1=DEV_264947_TSF.1 bus2=DEV_264947_708.1 Phases=1 linecode=4/0_1PH length=60 units=ft !kW=1.18155192308 pf=0.98 yearly=m3loadmult
New Line.OH_264945_1_2 bus1=DEV_264947_TSF.1 bus2=DEV_264947_711.1 Phases=1 linecode=4/0_1PH length=60 units=ft !kW=1.18155192308 pf=0.98 yearly=m3loadmult
New Line.OH_264945_1_3 bus1=DEV_264947_TSF.1 bus2=DEV_264947_709.1 Phases=1 linecode=4/0_1PH length=60 units=ft !kW=1.18155192308 pf=0.98 yearly=m3loadmult
New Line.OH_264945_1_4 bus1=DEV_264947_TSF.1 bus2=DEV_264947_1033.1 Phases=1 linecode=4/0_1PH length=60 units=ft !kW=1.18155192308 pf=0.98 yearly=m3loadmult
New Line.OH_264945_1_5 bus1=DEV_264947_TSF.1 bus2=DEV_264947_712.1 Phases=1 linecode=4/0_1PH length=60 units=ft !kW=1.18155192308 pf=0.98 yearly=m3loadmult
New Line.OH_264945_1_6 bus1=DEV_264947_TSF.1 bus2=DEV_264947_715.1 Phases=1 linecode=4/0_1PH length=60 units=ft !kW=1.18155192308 pf=0.98 yearly=m3loadmult
New Line.OH_264945_1_7 bus1=DEV_264947_TSF.1 bus2=DEV_264947_716.1 Phases=1 linecode=4/0_1PH length=60 units=ft !kW=1.18155192308 pf=0.98 yearly=m3loadmult
New Line.OH_264945_1_8 bus1=DEV_264947_TSF.1 bus2=DEV_264947_720.1 Phases=1 linecode=4/0_1PH length=60 units=ft !kW=1.18155192308 pf=0.98 yearly=m3loadmult
New Line.OH_264945_1_9 bus1=DEV_264947_TSF.1 bus2=DEV_264947_719.1 Phases=1 linecode=4/0_1PH length=60 units=ft !kW=1.18155192308 pf=0.98 yearly=m3loadmult
New Line.OH_264945_1_10 bus1=DEV_264947_TSF.1 bus2=DEV_264947_0_P49.1 Phases=1 linecode=4/0_1PH length=60 units=ft !kW=1.18155192308 pf=0.98 yearly=m3loadmult
New Line.OH_264945_1_11 bus1=DEV_264947_TSF.1 bus2=DEV_264947_1_P49.1 Phases=1 linecode=4/0_1PH length=60 units=ft !kW=1.18155192308 pf=0.98 yearly=m3loadmult
New Line.OH_264945_1_12 bus1=DEV_264947_TSF.1 bus2=DEV_264947_2_P49.1 Phases=1 linecode=4/0_1PH length=60 units=ft !kW=1.18155192308 pf=0.98 yearly=m3loadmult
New Line.OH_264945_1_13 bus1=DEV_264947_TSF.1 bus2=DEV_264947_3_P49.1 Phases=1 linecode=4/0_1PH length=60 units=ft !kW=1.18155192308 pf=0.98 yearly=m3loadmult
New Line.OH_264953_1_1 bus1=DEV_264954_TSF.1 bus2=DEV_264954_1570.1 Phases=1 linecode=4/0_1PH length=60 units=ft !kW=1.0434326 pf=0.98 yearly=m3loadmult
New Line.OH_264953_1_2 bus1=DEV_264954_TSF.1 bus2=DEV_264954_1571.1 Phases=1 linecode=4/0_1PH length=60 units=ft !kW=1.0434326 pf=0.98 yearly=m3loadmult
New Line.OH_264953_1_3 bus1=DEV_264954_TSF.1 bus2=DEV_264954_1563.1 Phases=1 linecode=4/0_1PH length=60 units=ft !kW=1.0434326 pf=0.98 yearly=m3loadmult
New Line.OH_264953_1_4 bus1=DEV_264954_TSF.1 bus2=DEV_264954_1564.1 Phases=1 linecode=4/0_1PH length=60 units=ft !kW=1.0434326 pf=0.98 yearly=m3loadmult
...